<?xml version="1.0" encoding="UTF-8"?>

<!-- generated on 2025-02-12 19:12:48 by Eclipse SUMO sumo Version 1.21.0
-->

<sumoConfiguration xmlns:xsi="http://www.w3.org/2001/XMLSchema-instance" xsi:noNamespaceSchemaLocation="http://sumo.dlr.de/xsd/sumoConfiguration.xsd">

    <input>
        <net-file value="helloworld.net.xml"/>
        <route-files value="demands.rou.xml"/>
        <additional-files value="config.add.xml"/>
    </input>

</sumoConfiguration>
